<?xml version="1.0" encoding="UTF-8"?>

<!-- generated on 2025-12-17T11:00:19.311286+01:00 by Eclipse SUMO netedit 1.25.0
-->

<routes xmlns:xsi="http://www.w3.org/2001/XMLSchema-instance" xsi:noNamespaceSchemaLocation="http://sumo.dlr.de/xsd/routes_file.xsd">
    <!-- Vehicles, persons and containers (sorted by depart) -->
    <trip id="t_0" depart="0.00" from="438898636#0" to="-4824704#0" via="438898636#1 4824702#0 4824702#1 4824702#2 4824695#1 4824695#3 1157218234#2 1157218234#3 1157218234#4 371146251 -4824705#2 -4824705#1 -4824705#0 -4824704#7 -4824704#6 -4824704#5 -4824704#3 -4824704#1"/>
    <trip id="t_1" depart="0.00" from="4824703#0" to="-4824710" via="4824703#1 4824703#4 1414274495#0 1414274495#2 1157218235 132963886 132963888#0 4824712"/>
    <trip id="t_2" depart="0.00" from="43324938#0" to="132963888#1" via="43324938#1 -4824702#2 -4824702#1 -4824702#0 4824704#0 4824704#1 4824704#3 4824704#5 4824704#6 4824704#7 4824705#0 4824705#1 4824705#2 -371146251 132963886 132963888#0"/>
    <trip id="t_3" depart="0.00" from="4824697" to="132963888#1" via="4824695#1 4824695#3 1157218234#2 1157218234#3 1157218234#4 132963886 132963888#0"/>
    <trip id="t_4" depart="0.00" from="-132963888#1" to="132964155" via="-132963888#0 -132963886 -1157218235 -4824698#0 4824704#5 4824704#6 4824704#7 4824705#0 4824705#1 4824705#2 -371146251 -1157218234#4 -1157218234#3 -1157218234#2 -4824695#3 -4824695#1"/>
</routes>
