<?xml version="1.0" encoding="UTF-8"?>

<!-- generated on 2025-12-17T12:54:06.569168+01:00 by Eclipse SUMO netedit 1.25.0
<neteditConfiguration xmlns:xsi="http://www.w3.org/2001/XMLSchema-instance" xsi:noNamespaceSchemaLocation="http://sumo.dlr.de/xsd/neteditConfiguration.xsd">

    <input>
        <sumocfg-file value="/Users/akshatkumarsharma/Downloads/SUMO/final.sumocfg"/>
        <route-files value="/Users/akshatkumarsharma/Downloads/SUMO/final.rou.xml"/>
        <sumo-net-file value="/Users/akshatkumarsharma/Downloads/SUMO/final.net.xml"/>
    </input>

    <output>
        <output-file value="/Users/akshatkumarsharma/Downloads/SUMO/final.net.xml"/>
    </output>

    <processing>
        <geometry.min-radius.fix.railways value="false"/>
        <geometry.avoid-overlap value="false"/>
        <geometry.max-grade.fix value="false"/>
        <offset.disable-normalization value="true"/>
        <lefthand value="0"/>
    </processing>

    <junctions>
        <no-turnarounds value="true"/>
        <junctions.corner-detail value="5"/>
        <junctions.limit-turn-speed value="5.50"/>
        <rectangular-lane-cut value="0"/>
    </junctions>

    <pedestrian>
        <walkingareas value="0"/>
    </pedestrian>

</neteditConfiguration>
-->

<net version="1.20" junctionCornerDetail="5" limitTurnSpeed="5.50" avoidOverlap="0" xmlns:xsi="http://www.w3.org/2001/XMLSchema-instance" xsi:noNamespaceSchemaLocation="http://sumo.dlr.de/xsd/net_file.xsd">

    <location netOffset="-478132.07,-5552932.22" convBoundary="0.00,0.00,520.66,471.47" origBoundary="8.694045,50.128227,8.701325,50.132480" projParameter="+proj=utm +zone=32 +ellps=WGS84 +datum=WGS84 +units=m +no_defs"/>

    <type id="highway.cycleway" priority="1" numLanes="1" speed="5.56" allow="bicycle" oneway="0" width="2.00"/>
    <type id="highway.living_street" priority="2" numLanes="1" speed="2.78" disallow="tram rail_urban rail rail_electric rail_fast ship container cable_car subway aircraft wheelchair scooter drone" oneway="0"/>
    <type id="highway.path" priority="1" numLanes="1" speed="5.56" allow="pedestrian bicycle" oneway="0" width="2.00"/>
    <type id="highway.residential" priority="3" numLanes="1" speed="13.89" disallow="tram rail_urban rail rail_electric rail_fast ship container cable_car subway aircraft wheelchair scooter drone" oneway="0"/>
    <type id="highway.service" priority="1" numLanes="1" speed="5.56" allow="pedestrian delivery bicycle" oneway="0"/>

    <edge id=":1037748819_0" function="internal">
        <lane id=":1037748819_0_0" index="0" disallow="tram rail_urban rail rail_electric rail_fast ship container cable_car subway aircraft wheelchair scooter drone" speed="8.33" length="0.27" shape="462.28,416.39 462.18,416.65"/>
    </edge>
    <edge id=":1037748819_1" function="internal">
        <lane id=":1037748819_1_0" index="0" disallow="tram rail_urban rail rail_electric rail_fast ship container cable_car subway aircraft wheelchair scooter drone" speed="8.33" length="0.14" shape="459.22,415.42 459.27,415.30"/>
    </edge>
    <edge id=":11216167557_0" function="internal">
        <lane id=":11216167557_0_0" index="0" disallow="tram rail_urban rail rail_electric rail_fast ship container cable_car subway aircraft wheelchair scooter drone" speed="8.33" length="0.10" shape="296.22,241.76 296.22,241.76"/>
    </edge>
    <edge id=":11216167557_1" function="internal">
        <lane id=":11216167557_1_0" index="0" disallow="tram rail_urban rail rail_electric rail_fast ship container cable_car subway aircraft wheelchair scooter drone" speed="8.33" length="0.10" shape="297.44,238.80 297.44,238.80"/>
    </edge>
    <edge id=":11582139219_0" function="internal">
        <lane id=":11582139219_0_0" index="0" disallow="tram rail_urban rail rail_electric rail_fast ship container cable_car subway aircraft wheelchair scooter drone" speed="8.33" length="0.30" shape="339.68,259.80 339.40,259.68"/>
    </edge>
    <edge id=":11582139219_1" function="internal">
        <lane id=":11582139219_1_0" index="0" disallow="tram rail_urban rail rail_electric rail_fast ship container cable_car subway aircraft wheelchair scooter drone" speed="8.33" length="0.30" shape="340.62,256.72 340.90,256.84"/>
    </edge>
    <edge id=":1463043121_0" function="internal">
        <lane id=":1463043121_0_0" index="0" disallow="tram rail_urban rail rail_electric rail_fast ship container cable_car subway aircraft wheelchair scooter drone" speed="8.33" length="0.30" shape="472.80,385.38 472.71,385.67"/>
    </edge>
    <edge id=":1463043121_1" function="internal">
        <lane id=":1463043121_1_0" index="0" disallow="tram rail_urban rail rail_electric rail_fast ship container cable_car subway aircraft wheelchair scooter drone" speed="8.33" length="0.30" shape="469.66,384.70 469.75,384.41"/>
    </edge>
    <edge id=":1463043263_0" function="internal">
        <lane id=":1463043263_0_0" index="0" disallow="tram rail_urban rail rail_electric rail_fast ship container cable_car subway aircraft wheelchair scooter drone" speed="8.33" length="0.29" shape="353.08,429.24 352.82,429.11"/>
    </edge>
    <edge id=":1463043263_1" function="internal">
        <lane id=":1463043263_1_0" index="0" disallow="tram rail_urban rail rail_electric rail_fast ship container cable_car subway aircraft wheelchair scooter drone" speed="8.33" length="0.31" shape="354.21,426.24 354.49,426.37"/>
    </edge>
    <edge id=":1625070764_0" function="internal">
        <lane id=":1625070764_0_0" index="0" disallow="tram rail_urban rail rail_electric rail_fast ship container cable_car subway aircraft wheelchair scooter drone" speed="8.33" length="11.06" shape="282.81,198.27 283.23,200.96 284.41,203.23 286.36,205.09 289.08,206.55"/>
    </edge>
    <edge id=":1625070764_1" function="internal">
        <lane id=":1625070764_1_0" index="0" disallow="tram rail_urban rail rail_electric rail_fast ship container cable_car subway aircraft wheelchair scooter drone" speed="6.78" length="9.46" shape="282.81,198.27 282.60,201.52 281.88,203.88 280.66,205.35 278.92,205.93"/>
    </edge>
    <edge id=":1625070764_2" function="internal">
        <lane id=":1625070764_2_0" index="0" disallow="tram rail_urban rail rail_electric rail_fast ship container cable_car subway aircraft wheelchair scooter drone" speed="8.33" length="11.26" shape="278.69,202.74 281.77,202.92 284.02,203.81 286.20,205.12 289.08,206.55"/>
    </edge>
    <edge id=":1625070764_3" function="internal">
        <lane id=":1625070764_3_0" index="0" disallow="tram rail_urban rail rail_electric rail_fast ship container cable_car subway aircraft wheelchair scooter drone" speed="3.65" length="4.67" shape="278.69,202.74 279.95,203.45 280.40,204.22 280.06,205.05 278.92,205.93"/>
    </edge>
    <edge id=":1625070779_0" function="internal">
        <lane id=":1625070779_0_0" index="0" disallow="tram rail_urban rail rail_electric rail_fast ship container cable_car subway aircraft wheelchair scooter drone" speed="6.39" length="9.39" shape="378.03,240.52 376.96,243.01 376.95,245.14 378.00,246.89 380.10,248.28"/>
    </edge>
    <edge id=":1625070779_1" function="internal">
        <lane id=":1625070779_1_0" index="0" disallow="tram rail_urban rail rail_electric rail_fast ship container cable_car subway aircraft wheelchair scooter drone" speed="8.33" length="11.67" shape="378.03,240.52 372.09,250.57"/>
    </edge>
    <edge id=":1625070779_2" function="internal">
        <lane id=":1625070779_2_0" index="0" disallow="tram rail_urban rail rail_electric rail_fast ship container cable_car subway aircraft wheelchair scooter drone" speed="3.65" length="1.44" shape="378.03,240.52 376.73,241.15"/>
    </edge>
    <edge id=":1625070779_9" function="internal">
        <lane id=":1625070779_9_0" index="0" disallow="tram rail_urban rail rail_electric rail_fast ship container cable_car subway aircraft wheelchair scooter drone" speed="3.65" length="3.23" shape="376.73,241.15 375.83,241.08 375.35,240.33 375.28,238.89"/>
    </edge>
    <edge id=":1625070779_3" function="internal">
        <lane id=":1625070779_3_0" index="0" disallow="tram rail_urban rail rail_electric rail_fast ship container cable_car subway aircraft wheelchair scooter drone" speed="6.06" length="9.07" shape="367.87,239.87 369.96,241.38 371.89,241.72 373.66,240.89 375.28,238.89"/>
    </edge>
    <edge id=":1625070779_4" function="internal">
        <lane id=":1625070779_4_0" index="0" disallow="tram rail_urban rail rail_electric rail_fast ship container cable_car subway aircraft wheelchair scooter drone" speed="8.33" length="14.91" shape="367.87,239.87 370.66,242.36 373.63,244.60 376.78,246.58 380.10,248.28"/>
    </edge>
    <edge id=":1625070779_5" function="internal">
        <lane id=":1625070779_5_0" index="0" disallow="tram rail_urban rail rail_electric rail_fast ship container cable_car subway aircraft wheelchair scooter drone" speed="8.23" length="12.34" shape="367.87,239.87 370.64,242.97 372.27,245.78 372.75,248.32 372.09,250.57"/>
    </edge>
    <edge id=":1625070779_6" function="internal">
        <lane id=":1625070779_6_0" index="0" disallow="tram rail_urban rail rail_electric rail_fast ship container cable_car subway aircraft wheelchair scooter drone" speed="8.33" length="11.70" shape="369.33,248.95 375.28,238.89"/>
    </edge>
    <edge id=":1625070779_7" function="internal">
        <lane id=":1625070779_7_0" index="0" disallow="tram rail_urban rail rail_electric rail_fast ship container cable_car subway aircraft wheelchair scooter drone" speed="7.64" length="2.37" shape="369.33,248.95 370.97,247.25"/>
    </edge>
    <edge id=":1625070779_8" function="internal">
        <lane id=":1625070779_8_0" index="0" disallow="tram rail_urban rail rail_electric rail_fast ship container cable_car subway aircraft wheelchair scooter drone" speed="3.65" length="1.44" shape="369.33,248.95 370.62,248.32"/>
    </edge>
    <edge id=":1625070779_10" function="internal">
        <lane id=":1625070779_10_0" index="0" disallow="tram rail_urban rail rail_electric rail_fast ship container cable_car subway aircraft wheelchair scooter drone" speed="7.64" length="9.48" shape="370.97,247.25 373.32,246.57 376.36,246.92 380.10,248.28"/>
    </edge>
    <edge id=":1625070779_11" function="internal">
        <lane id=":1625070779_11_0" index="0" disallow="tram rail_urban rail rail_electric rail_fast ship container cable_car subway aircraft wheelchair scooter drone" speed="3.65" length="3.23" shape="370.62,248.32 371.52,248.38 372.01,249.13 372.09,250.57"/>
    </edge>
    <edge id=":1625070815_0" function="internal">
        <lane id=":1625070815_0_0" index="0" allow="pedestrian delivery bicycle" speed="6.13" length="7.82" shape="105.03,302.00 105.05,300.55 105.93,299.27 107.67,298.17 110.26,297.24"/>
    </edge>
    <edge id=":1625070815_1" function="internal">
        <lane id=":1625070815_1_0" index="0" allow="pedestrian delivery bicycle" speed="3.65" length="4.67" shape="105.03,302.00 105.49,300.63 106.16,300.04 107.04,300.22 108.12,301.17"/>
    </edge>
    <edge id=":1625070815_2" function="internal">
        <lane id=":1625070815_2_0" index="0" disallow="tram rail_urban rail rail_electric rail_fast ship container cable_car subway aircraft wheelchair scooter drone" speed="8.33" length="9.44" shape="101.20,299.87 110.26,297.24"/>
    </edge>
    <edge id=":1625070815_3" function="internal">
        <lane id=":1625070815_3_0" index="0" allow="pedestrian delivery bicycle" speed="6.05" length="7.85" shape="101.20,299.87 103.91,299.26 105.97,299.27 107.37,299.91 108.12,301.17"/>
    </edge>
    <edge id=":1625070825_0" function="internal">
        <lane id=":1625070825_0_0" index="0" allow="pedestrian delivery bicycle" speed="5.56" length="5.25" shape="115.50,327.63 115.71,328.98 115.57,330.23 115.06,331.38 114.18,332.43"/>
    </edge>
    <edge id=":1625070825_1" function="internal">
        <lane id=":1625070825_1_0" index="0" allow="pedestrian delivery bicycle" speed="3.65" length="4.67" shape="115.50,327.63 115.06,329.00 114.40,329.60 113.52,329.44 112.42,328.50"/>
    </edge>
    <edge id=":1625070825_2" function="internal">
        <lane id=":1625070825_2_0" index="0" allow="pedestrian delivery bicycle" speed="4.00" length="1.75" shape="111.98,330.10 112.27,329.75 112.44,329.37 112.49,328.95 112.42,328.50"/>
    </edge>
    <edge id=":1625070825_3" function="internal">
        <lane id=":1625070825_3_0" index="0" allow="pedestrian delivery bicycle" speed="3.65" length="4.67" shape="111.98,330.10 113.40,329.86 114.24,330.16 114.50,331.02 114.18,332.43"/>
    </edge>
    <edge id=":1625070837_0" function="internal">
        <lane id=":1625070837_0_0" index="0" allow="pedestrian delivery bicycle" speed="5.56" length="5.38" shape="106.37,339.11 106.11,337.73 106.24,336.45 106.76,335.27 107.65,334.19"/>
    </edge>
    <edge id=":1625070837_1" function="internal">
        <lane id=":1625070837_1_0" index="0" allow="pedestrian delivery bicycle" speed="3.65" length="4.67" shape="106.37,339.11 106.77,337.73 107.42,337.11 108.30,337.25 109.42,338.16"/>
    </edge>
    <edge id=":1625070837_2" function="internal">
        <lane id=":1625070837_2_0" index="0" allow="pedestrian delivery bicycle" speed="3.99" length="1.79" shape="109.85,336.52 109.55,336.88 109.38,337.27 109.34,337.70 109.42,338.16"/>
    </edge>
    <edge id=":1625070837_3" function="internal">
        <lane id=":1625070837_3_0" index="0" allow="pedestrian delivery bicycle" speed="3.65" length="4.67" shape="109.85,336.52 108.43,336.76 107.59,336.46 107.33,335.60 107.65,334.19"/>
    </edge>
    <edge id=":1625070839_0" function="internal">
        <lane id=":1625070839_0_0" index="0" allow="pedestrian delivery bicycle" speed="3.65" length="4.67" shape="129.94,404.06 129.53,405.44 128.88,406.06 128.00,405.91 126.88,405.00"/>
    </edge>
    <edge id=":30095671_0" function="internal">
        <lane id=":30095671_0_0" index="0" disallow="tram rail_urban rail rail_electric rail_fast ship container cable_car subway aircraft wheelchair scooter drone" speed="8.04" length="12.67" shape="189.08,369.26 185.69,368.91 183.07,367.60 181.21,365.33 180.13,362.10"/>
    </edge>
    <edge id=":30095671_1" function="internal">
        <lane id=":30095671_1_0" index="0" disallow="tram rail_urban rail rail_electric rail_fast ship container cable_car subway aircraft wheelchair scooter drone" speed="3.65" length="1.44" shape="189.08,369.26 187.85,368.50"/>
    </edge>
    <edge id=":30095671_6" function="internal">
        <lane id=":30095671_6_0" index="0" disallow="tram rail_urban rail rail_electric rail_fast ship container cable_car subway aircraft wheelchair scooter drone" speed="3.65" length="3.23" shape="187.85,368.50 187.42,367.71 187.80,366.90 188.97,366.06"/>
    </edge>
    <edge id=":30095671_2" function="internal">
        <lane id=":30095671_2_0" index="0" disallow="tram rail_urban rail rail_electric rail_fast ship container cable_car subway aircraft wheelchair scooter drone" speed="6.54" length="8.06" shape="183.27,361.50 183.96,363.56 185.14,365.00 186.81,365.84 188.97,366.06"/>
    </edge>
    <edge id=":30095671_3" function="internal">
        <lane id=":30095671_3_0" index="0" disallow="tram rail_urban rail rail_electric rail_fast ship container cable_car subway aircraft wheelchair scooter drone" speed="3.65" length="1.44" shape="183.27,361.50 182.71,362.83"/>
    </edge>
    <edge id=":30095671_7" function="internal">
        <lane id=":30095671_7_0" index="0" disallow="tram rail_urban rail rail_electric rail_fast ship container cable_car subway aircraft wheelchair scooter drone" speed="3.65" length="3.23" shape="182.71,362.83 182.00,363.37 181.14,363.13 180.13,362.10"/>
    </edge>
    <edge id=":30095671_4" function="internal">
        <lane id=":30095671_4_0" index="0" disallow="tram rail_urban rail rail_electric rail_fast ship container cable_car subway aircraft wheelchair scooter drone" speed="8.33" length="15.16" shape="181.91,377.10 181.97,373.35 181.56,369.58 180.87,365.82 180.13,362.10"/>
    </edge>
    <edge id=":30095671_5" function="internal">
        <lane id=":30095671_5_0" index="0" disallow="tram rail_urban rail rail_electric rail_fast ship container cable_car subway aircraft wheelchair scooter drone" speed="8.33" length="11.21" shape="181.91,377.10 182.76,372.35 184.23,368.92 186.09,367.03"/>
    </edge>
    <edge id=":30095671_8" function="internal">
        <lane id=":30095671_8_0" index="0" disallow="tram rail_urban rail rail_electric rail_fast ship container cable_car subway aircraft wheelchair scooter drone" speed="8.33" length="3.07" shape="186.09,367.03 186.29,366.83 188.97,366.06"/>
    </edge>
    <edge id=":30095672_0" function="internal">
        <lane id=":30095672_0_0" index="0" disallow="tram rail_urban rail rail_electric rail_fast ship container cable_car subway aircraft wheelchair scooter drone" speed="6.07" length="8.11" shape="437.15,469.25 435.80,471.04 434.22,471.93 432.40,471.91 430.36,470.98"/>
    </edge>
    <edge id=":30095672_1" function="internal">
        <lane id=":30095672_1_0" index="0" disallow="tram rail_urban rail rail_electric rail_fast ship container cable_car subway aircraft wheelchair scooter drone" speed="3.90" length="2.70" shape="432.08,468.29 432.76,468.59 433.36,468.60 433.89,468.30 434.34,467.71"/>
    </edge>
    <edge id=":30095817_0" function="internal">
        <lane id=":30095817_0_0" index="0" disallow="tram rail_urban rail rail_electric rail_fast ship container cable_car subway aircraft wheelchair scooter drone" speed="6.08" length="7.45" shape="485.83,343.81 487.25,345.26 487.89,346.83 487.76,348.52 486.87,350.34"/>
    </edge>
    <edge id=":30095817_1" function="internal">
        <lane id=":30095817_1_0" index="0" disallow="tram rail_urban rail rail_electric rail_fast ship container cable_car subway aircraft wheelchair scooter drone" speed="3.91" length="2.48" shape="484.23,348.53 484.53,347.92 484.57,347.36 484.35,346.84 483.88,346.35"/>
    </edge>
    <edge id=":31010697_0" function="internal">
        <lane id=":31010697_0_0" index="0" disallow="tram rail_urban rail rail_electric rail_fast ship container cable_car subway aircraft wheelchair scooter drone" speed="8.33" length="12.54" shape="157.80,291.19 154.06,279.22"/>
    </edge>
    <edge id=":31010697_1" function="internal">
        <lane id=":31010697_1_0" index="0" disallow="tram rail_urban rail rail_electric rail_fast ship container cable_car subway aircraft wheelchair scooter drone" speed="6.78" length="3.09" shape="157.80,291.19 157.40,288.12"/>
    </edge>
    <edge id=":31010697_2" function="internal">
        <lane id=":31010697_2_0" index="0" disallow="tram rail_urban rail rail_electric rail_fast ship container cable_car subway aircraft wheelchair scooter drone" speed="3.65" length="1.44" shape="157.80,291.19 158.19,289.80"/>
    </edge>
    <edge id=":31010697_9" function="internal">
        <lane id=":31010697_9_0" index="0" disallow="tram rail_urban rail rail_electric rail_fast ship container cable_car subway aircraft wheelchair scooter drone" speed="6.78" length="9.38" shape="157.40,288.12 158.49,285.97 161.08,284.73 165.17,284.41"/>
    </edge>
    <edge id=":31010697_10" function="internal">
        <lane id=":31010697_10_0" index="0" disallow="tram rail_urban rail rail_electric rail_fast ship container cable_car subway aircraft wheelchair scooter drone" speed="3.65" length="3.23" shape="158.19,289.80 158.83,289.17 159.71,289.31 160.85,290.20"/>
    </edge>
    <edge id=":31010697_3" function="internal">
        <lane id=":31010697_3_0" index="0" disallow="tram rail_urban rail rail_electric rail_fast ship container cable_car subway aircraft wheelchair scooter drone" speed="8.03" length="10.87" shape="157.13,278.32 158.29,280.92 160.02,282.80 162.31,283.96 165.17,284.41"/>
    </edge>
    <edge id=":31010697_4" function="internal">
        <lane id=":31010697_4_0" index="0" disallow="tram rail_urban rail rail_electric rail_fast ship container cable_car subway aircraft wheelchair scooter drone" speed="8.33" length="12.45" shape="157.13,278.32 160.85,290.20"/>
    </edge>
    <edge id=":31010697_5" function="internal">
        <lane id=":31010697_5_0" index="0" disallow="tram rail_urban rail rail_electric rail_fast ship container cable_car subway aircraft wheelchair scooter drone" speed="3.65" length="1.44" shape="157.13,278.32 156.70,279.69"/>
    </edge>
    <edge id=":31010697_11" function="internal">
        <lane id=":31010697_11_0" index="0" disallow="tram rail_urban rail rail_electric rail_fast ship container cable_car subway aircraft wheelchair scooter drone" speed="3.65" length="3.23" shape="156.70,279.69 156.05,280.30 155.17,280.15 154.06,279.22"/>
    </edge>
    <edge id=":31010697_6" function="internal">
        <lane id=":31010697_6_0" index="0" disallow="tram rail_urban rail rail_electric rail_fast ship container cable_car subway aircraft wheelchair scooter drone" speed="6.47" length="9.03" shape="150.24,286.13 152.51,285.13 153.90,283.65 154.42,281.68 154.06,279.22"/>
    </edge>
    <edge id=":31010697_7" function="internal">
        <lane id=":31010697_7_0" index="0" disallow="tram rail_urban rail rail_electric rail_fast ship container cable_car subway aircraft wheelchair scooter drone" speed="8.33" length="15.08" shape="150.24,286.13 153.90,285.27 157.63,284.71 161.40,284.43 165.17,284.41"/>
    </edge>
    <edge id=":31010697_8" function="internal">
        <lane id=":31010697_8_0" index="0" disallow="tram rail_urban rail rail_electric rail_fast ship container cable_car subway aircraft wheelchair scooter drone" speed="7.74" length="12.77" shape="150.24,286.13 154.09,285.49 157.14,285.96 159.39,287.53 160.85,290.20"/>
    </edge>
    <edge id=":31010722_0" function="internal">
        <lane id=":31010722_0_0" index="0" disallow="tram rail_urban rail rail_electric rail_fast ship container cable_car subway aircraft wheelchair scooter drone" speed="5.55" length="9.10" shape="243.35,115.59 243.00,113.09 242.06,111.11 240.54,109.67 238.44,108.75"/>
    </edge>
    <edge id=":31010722_1" function="internal">
        <lane id=":31010722_1_0" index="0" disallow="tram rail_urban rail rail_electric rail_fast ship container cable_car subway aircraft wheelchair scooter drone" speed="5.55" length="10.51" shape="243.35,115.59 243.46,105.08"/>
    </edge>
    <edge id=":31010722_2" function="internal">
        <lane id=":31010722_2_0" index="0" allow="pedestrian bicycle" speed="6.30" length="2.69" width="2.00" shape="243.35,115.59 243.76,113.21 243.95,113.01"/>
    </edge>
    <edge id=":31010722_3" function="internal">
        <lane id=":31010722_3_0" index="0" disallow="tram rail_urban rail rail_electric rail_fast ship container cable_car subway aircraft wheelchair scooter drone" speed="3.65" length="1.44" shape="243.35,115.59 244.12,114.37"/>
    </edge>
    <edge id=":31010722_12" function="internal">
        <lane id=":31010722_12_0" index="0" allow="pedestrian bicycle" speed="6.30" length="7.34" width="2.00" shape="243.95,113.01 245.12,111.76 247.42,111.24 250.67,111.66"/>
    </edge>
    <edge id=":31010722_13" function="internal">
        <lane id=":31010722_13_0" index="0" disallow="tram rail_urban rail rail_electric rail_fast ship container cable_car subway aircraft wheelchair scooter drone" speed="3.65" length="3.23" shape="244.12,114.37 244.91,113.95 245.72,114.34 246.55,115.52"/>
    </edge>
    <edge id=":31010722_4" function="internal">
        <lane id=":31010722_4_0" index="0" allow="pedestrian bicycle" speed="4.40" length="4.73" width="2.00" shape="249.91,113.54 248.42,113.36 247.36,113.63 246.74,114.35 246.55,115.52"/>
    </edge>
    <edge id=":31010722_5" function="internal">
        <lane id=":31010722_5_0" index="0" allow="pedestrian bicycle" speed="4.17" length="12.46" width="2.00" shape="249.91,113.54 246.74,112.49 244.16,111.20 241.58,109.89 238.44,108.75"/>
    </edge>
    <edge id=":31010722_6" function="internal">
        <lane id=":31010722_6_0" index="0" allow="pedestrian bicycle" speed="4.17" length="11.68" width="2.00" shape="249.91,113.54 246.98,112.41 244.93,110.62 243.76,108.18 243.46,105.08"/>
    </edge>
    <edge id=":31010722_7" function="internal">
        <lane id=":31010722_7_0" index="0" allow="pedestrian bicycle" speed="2.90" length="2.46" width="2.00" shape="249.91,113.54 249.39,112.79 249.35,112.22 249.77,111.85 250.18,111.76"/>
    </edge>
    <edge id=":31010722_14" function="internal">
        <lane id=":31010722_14_0" index="0" allow="pedestrian bicycle" speed="2.90" length="0.50" width="2.00" shape="250.18,111.76 250.67,111.66"/>
    </edge>
    <edge id=":31010722_8" function="internal">
        <lane id=":31010722_8_0" index="0" allow="pedestrian bicycle" speed="4.17" length="8.32" width="2.00" shape="246.66,105.21 246.83,107.65 247.55,109.55 248.83,110.88 250.67,111.66"/>
    </edge>
    <edge id=":31010722_9" function="internal">
        <lane id=":31010722_9_0" index="0" disallow="tram rail_urban rail rail_electric rail_fast ship container cable_car subway aircraft wheelchair scooter drone" speed="5.55" length="10.31" shape="246.66,105.21 246.55,115.52"/>
    </edge>
    <edge id=":31010722_10" function="internal">
        <lane id=":31010722_10_0" index="0" disallow="tram rail_urban rail rail_electric rail_fast ship container cable_car subway aircraft wheelchair scooter drone" speed="2.78" length="2.44" shape="246.66,105.21 246.06,107.58"/>
    </edge>
    <edge id=":31010722_11" function="internal">
        <lane id=":31010722_11_0" index="0" disallow="tram rail_urban rail rail_electric rail_fast ship container cable_car subway aircraft wheelchair scooter drone" speed="2.78" length="1.44" shape="246.66,105.21 245.81,106.37"/>
    </edge>
    <edge id=":31010722_15" function="internal">
        <lane id=":31010722_15_0" index="0" disallow="tram rail_urban rail rail_electric rail_fast ship container cable_car subway aircraft wheelchair scooter drone" speed="2.78" length="8.22" shape="246.06,107.58 244.49,108.96 241.95,109.35 238.44,108.75"/>
    </edge>
    <edge id=":31010722_16" function="internal">
        <lane id=":31010722_16_0" index="0" disallow="tram rail_urban rail rail_electric rail_fast ship container cable_car subway aircraft wheelchair scooter drone" speed="2.78" length="3.23" shape="245.81,106.37 244.99,106.74 244.21,106.31 243.46,105.08"/>
    </edge>
    <edge id=":31010724_0" function="internal">
        <lane id=":31010724_0_0" index="0" disallow="tram rail_urban rail rail_electric rail_fast ship container cable_car subway aircraft wheelchair scooter drone" speed="8.33" length="11.17" shape="420.72,171.73 414.78,181.20"/>
    </edge>
    <edge id=":31010724_1" function="internal">
        <lane id=":31010724_1_0" index="0" disallow="tram rail_urban rail rail_electric rail_fast ship container cable_car subway aircraft wheelchair scooter drone" speed="7.44" length="2.45" shape="420.72,171.73 418.97,173.46"/>
    </edge>
    <edge id=":31010724_2" function="internal">
        <lane id=":31010724_2_0" index="0" disallow="tram rail_urban rail rail_electric rail_fast ship container cable_car subway aircraft wheelchair scooter drone" speed="3.65" length="1.44" shape="420.72,171.73 419.40,172.32"/>
    </edge>
    <edge id=":31010724_6" function="internal">
        <lane id=":31010724_6_0" index="0" disallow="tram rail_urban rail rail_electric rail_fast ship container cable_car subway aircraft wheelchair scooter drone" speed="7.44" length="9.30" shape="418.97,173.46 416.63,174.06 413.69,173.53 410.16,171.88"/>
    </edge>
    <edge id=":31010724_7" function="internal">
        <lane id=":31010724_7_0" index="0" disallow="tram rail_urban rail rail_electric rail_fast ship container cable_car subway aircraft wheelchair scooter drone" speed="3.65" length="3.23" shape="419.40,172.32 418.51,172.23 418.05,171.47 418.01,170.03"/>
    </edge>
    <edge id=":31010724_3" function="internal">
        <lane id=":31010724_3_0" index="0" disallow="tram rail_urban rail rail_electric rail_fast ship container cable_car subway aircraft wheelchair scooter drone" speed="6.44" length="9.03" shape="412.06,179.51 413.07,177.23 413.08,175.20 412.11,173.42 410.16,171.88"/>
    </edge>
    <edge id=":31010724_4" function="internal">
        <lane id=":31010724_4_0" index="0" disallow="tram rail_urban rail rail_electric rail_fast ship container cable_car subway aircraft wheelchair scooter drone" speed="8.33" length="11.19" shape="412.06,179.51 418.01,170.03"/>
    </edge>
    <edge id=":31010724_5" function="internal">
        <lane id=":31010724_5_0" index="0" disallow="tram rail_urban rail rail_electric rail_fast ship container cable_car subway aircraft wheelchair scooter drone" speed="3.65" length="1.44" shape="412.06,179.51 413.38,178.91"/>
    </edge>
    <edge id=":31010724_8" function="internal">
        <lane id=":31010724_8_0" index="0" disallow="tram rail_urban rail rail_electric rail_fast ship container cable_car subway aircraft wheelchair scooter drone" speed="3.65" length="3.23" shape="413.38,178.91 414.27,179.00 414.74,179.76 414.78,181.20"/>
    </edge>
    <edge id=":31010725_0" function="internal">
        <lane id=":31010725_0_0" index="0" disallow="tram rail_urban rail rail_electric rail_fast ship container cable_car subway aircraft wheelchair scooter drone" speed="3.65" length="4.67" shape="467.18,99.00 468.53,98.48 469.41,98.61 469.84,99.40 469.80,100.84"/>
    </edge>
    <edge id=":31010786_0" function="internal">
        <lane id=":31010786_0_0" index="0" disallow="tram rail_urban rail rail_electric rail_fast ship container cable_car subway aircraft wheelchair scooter drone" speed="8.33" length="0.31" shape="332.84,419.55 332.55,419.43"/>
    </edge>
    <edge id=":31010786_1" function="internal">