<?xml version="1.0" encoding="UTF-8"?>

<!-- generated on 2025-12-17T12:54:07.900139+01:00 by Eclipse SUMO sumo 1.25.0
-->

<sumoConfiguration xmlns:xsi="http://www.w3.org/2001/XMLSchema-instance" xsi:noNamespaceSchemaLocation="http://sumo.dlr.de/xsd/sumoConfiguration.xsd">

    <input>
        <net-file value="final.net.xml"/>
        <route-files value="final.rou.xml"/>
    </input>

</sumoConfiguration>
